140
Properties=species:S:1:pos:R:3:Z:I:1 pbc="F F F"
C      18.60869565       5.78260870       0.00000000        6 
C     211.53571429       6.35714286       0.00000000        6 
C      53.50000000       7.21428571       0.00000000        6 
C      72.50000000       7.50000000       0.00000000        6 
C     247.15384615       8.46153846       0.00000000        6 
C     108.11538462      11.03846154       0.00000000        6 
C     127.41379310      13.27586207       0.00000000        6 
C     163.81250000      16.46875000       0.00000000        6 
C     181.72413793      17.58620690       0.00000000        6 
C      25.41379310      20.55172414       0.00000000        6 
C      42.59259259      22.25925926       0.00000000        6 
C     218.61764706      23.02941176       0.00000000        6 
C      79.50000000      24.50000000       0.00000000        6 
C     238.02941176      24.61764706       0.00000000        6 
C      98.36666667      26.46666667       0.00000000        6 
C     134.50000000      30.50000000       0.00000000        6 
C     152.58064516      31.74193548       0.00000000        6 
C      15.00000000      34.50000000       0.00000000        6 
C     189.83783784      34.97297297       0.00000000        6 
C      50.39393939      37.48484848       0.00000000        6 
C     208.50000000      37.50000000       0.00000000        6 
C      69.00000000      38.65625000       0.00000000        6 
C     244.68965517      41.93103448       0.00000000        6 
C     105.91428571      43.45714286       0.00000000        6 
C     123.58620690      45.27586207       0.00000000        6 
C     160.29411765      48.50000000       0.00000000        6 
C     178.69696970      50.09090909       0.00000000        6 
C      20.90909091      51.30303030       0.00000000        6 
C      40.24242424      52.54545455       0.00000000        6 
C     215.80555556      55.05555556       0.00000000        6 
C      76.67647059      55.58823529       0.00000000        6 
C     234.48275862      57.10344828       0.00000000        6 
C      95.41379310      58.27586207       0.00000000        6 
C     130.50000000      61.50000000       0.00000000        6 
C     149.36666667      62.36666667       0.00000000        6 
C      10.67857143      64.67857143       0.00000000        6 
C     185.77142857      67.62857143       0.00000000        6 
C      47.00000000      68.82857143       0.00000000        6 
C     205.25806452      69.64516129       0.00000000        6 
C      65.63333333      70.63333333       0.00000000        6 
C     241.54838710      73.29032258       0.00000000        6 
C     102.00000000      74.26470588       0.00000000        6 
C     120.36666667      76.36666667       0.00000000        6 
C     157.54054054      79.91891892       0.00000000        6 
C      17.57575758      81.93939394       0.00000000        6 
C     175.50000000      82.50000000       0.00000000        6 
C      37.58620690      83.27586207       0.00000000        6 
C      72.90909091      86.69696970       0.00000000        6 
C     212.90909091      86.30303030       0.00000000        6 
C      91.00000000      88.65625000       0.00000000        6 
C     231.72727273      88.39393939       0.00000000        6 
C     127.50000000      93.50000000       0.00000000        6 
C     146.11764706      95.20588235       0.00000000        6 
C       6.69230769      96.23076923       0.00000000        6 
C      44.05714286      99.65714286       0.00000000        6 
C     184.50000000     100.00000000       0.00000000        6 
C      62.36666667     101.36666667       0.00000000        6 
C     202.33333333     101.50000000       0.00000000        6 
C      97.97058824     105.38235294       0.00000000        6 
C     238.93548387     105.67741935       0.00000000        6 
C     116.00000000     107.73529412       0.00000000        6 
C      14.54545455     113.21212121       0.00000000        6 
C     154.11764706     112.79411765       0.00000000        6 
C     173.11428571     114.57142857       0.00000000        6 
C      32.70967742     115.29032258       0.00000000        6 
C      69.42857143     118.22857143       0.00000000        6 
C      87.58064516     119.06451613       0.00000000        6 
C     209.58620690     118.27586207       0.00000000        6 
C     228.09090909     119.69696970       0.00000000        6 
C     125.89473684     125.78947368       0.00000000        6 
C     143.50000000     127.50000000       0.00000000        6 
C     181.02777778     131.08333333       0.00000000        6 
C      40.69696970     132.09090909       0.00000000        6 
C     199.58064516     132.54838710       0.00000000        6 
C      58.66666667     134.50000000       0.00000000        6 
C      95.30952381     137.64285714       0.00000000        6 
C     235.57575758     137.57575758       0.00000000        6 
C     115.57575758     140.57575758       0.00000000        6 
C     151.40540541     144.83783784       0.00000000        6 
C      11.23529412     146.11764706       0.00000000        6 
C     170.30303030     147.09090909       0.00000000        6 
C      29.63333333     147.36666667       0.00000000        6 
C     206.15625000     150.62500000       0.00000000        6 
C      65.50000000     152.50000000       0.00000000        6 
C     225.00000000     152.30000000       0.00000000        6 
C      83.81250000     154.28125000       0.00000000        6 
C     123.00000000     157.73529412       0.00000000        6 
C     140.69696970     160.09090909       0.00000000        6 
C      36.87878788     164.12121212       0.00000000        6 
C     177.20588235     164.08823529       0.00000000        6 
C     195.90909091     165.30303030       0.00000000        6 
C      55.35483871     166.74193548       0.00000000        6 
C     231.97058824     170.38235294       0.00000000        6 
C      91.00000000     171.50000000       0.00000000        6 
C     249.92592593     171.59259259       0.00000000        6 
C     110.50000000     172.50000000       0.00000000        6 
C       8.80000000     177.66666667       0.00000000        6 
C     148.11428571     177.88571429       0.00000000        6 
C      26.36666667     178.63333333       0.00000000        6 
C     166.50000000     179.50000000       0.00000000        6 
C     203.22222222     183.33333333       0.00000000        6 
C      63.00000000     184.50000000       0.00000000        6 
C     221.50000000     184.50000000       0.00000000        6 
C      81.09677419     186.32258065       0.00000000        6 
C     117.83783784     189.40540541       0.00000000        6 
C     136.29032258     191.70967742       0.00000000        6 
C      34.18750000     195.53125000       0.00000000        6 
C     173.91176471     196.02941176       0.00000000        6 
C     192.09090909     197.69696970       0.00000000        6 
C      53.18750000     198.53125000       0.00000000        6 
C     229.09090909     201.84848485       0.00000000        6 
C      89.57575758     202.57575758       0.00000000        6 
C     247.34375000     203.00000000       0.00000000        6 
C     107.96666667     204.60000000       0.00000000        6 
C     143.59459459     208.35135135       0.00000000        6 
C       6.50000000     209.50000000       0.00000000        6 
C     162.69696970     210.09090909       0.00000000        6 
C      23.41176471     211.32352941       0.00000000        6 
C     199.77142857     214.57142857       0.00000000        6 
C      60.50000000     215.50000000       0.00000000        6 
C     219.00000000     216.50000000       0.00000000        6 
C      79.80000000     217.10000000       0.00000000        6 
C     115.64516129     221.25806452       0.00000000        6 
C     133.13793103     222.41379310       0.00000000        6 
C     169.63333333     227.36666667       0.00000000        6 
C      30.21428571     228.53571429       0.00000000        6 
C     189.84375000     229.37500000       0.00000000        6 
C      50.32142857     230.32142857       0.00000000        6 
C     225.61764706     233.02941176       0.00000000        6 
C      86.54838710     233.58064516       0.00000000        6 
C     243.50000000     234.78571429       0.00000000        6 
C     105.58620690     236.27586207       0.00000000        6 
C     140.50000000     239.33333333       0.00000000        6 
C     158.96666667     240.60000000       0.00000000        6 
C      19.80000000     242.56000000       0.00000000        6 
C     196.33333333     246.02777778       0.00000000        6 
C      56.36666667     246.63333333       0.00000000        6 
C     215.18750000     246.53125000       0.00000000        6 
C      75.21428571     247.50000000       0.00000000        6 
C     250.41666667     250.25000000       0.00000000        6 
